*Heading
** Job name: Jobcrashboxtesr Model name: Model-1
** Generated by: Abaqus/CAE Learning Edition 2025
*Preprint, echo=NO, model=NO, history=NO, contact=NO
**
** PARTS
**
*Part, name=crashbox
*End Part
**  
*Part, name=wall
*End Part
**  
**
** ASSEMBLY
**
*Assembly, name=Assembly
**  
*Instance, name=crashbox-1, part=crashbox
*Node
      1,       -13.75,         -10.,         150.
      2,       -13.75,          15.,         150.
      3,       -13.75,          15.,           0.
      4,       -13.75,         -10.,           0.
      5,       -38.75,          15.,         150.
      6,       -38.75,          15.,           0.
      7,       -38.75,         -10.,         150.
      8,       -38.75,         -10.,           0.
      9,       -13.75,          -5.,         150.
     10,       -13.75,           0.,         150.
     11,       -13.75,           5.,         150.
     12,       -13.75,          10.,         150.
     13,       -13.75,          15.,         145.
     14,       -13.75,          15.,         140.
     15,       -13.75,          15.,         135.
     16,       -13.75,          15.,         130.
     17,       -13.75,          15.,         125.
     18,       -13.75,          15.,         120.
     19,       -13.75,          15.,         115.
     20,       -13.75,          15.,         110.
** ... 600 like lines cut
*Element, type=S4R
  1,   1,   9, 157,  74
  2,   9,  10, 158, 157
  3,  10,  11, 159, 158
  4,  11,  12, 160, 159
  5,  12,   2,  13, 160
  6,  74, 157, 161,  73
  7, 157, 158, 162, 161
  8, 158, 159, 163, 162
  9, 159, 160, 164, 163
 10, 160,  13,  14, 164
 11,  73, 161, 165,  72
 12, 161, 162, 166, 165
 13, 162, 163, 167, 166
 14, 163, 164, 168, 167
 15, 164,  14,  15, 168
 16,  72, 165, 169,  71
 17, 165, 166, 170, 169
 18, 166, 167, 171, 170
 19, 167, 168, 172, 171
 20, 168,  15,  16, 172
** ... 580 like lines cut
*Nset, nset=Set-1, generate
   1,  620,    1
*Elset, elset=Set-1, generate
   1,  600,    1
** Section: boxsection
*Shell Section, elset=Set-1, material=aluminium
  1., 5
*End Instance
**  
*Instance, name=wall-1, part=wall
         20.,          10.,           0.
*Node
      1,       -71.25,        -32.5,           0.
      2,       -66.25,        -32.5,           0.
      3,       -61.25,        -32.5,           0.
      4,       -56.25,        -32.5,           0.
      5,       -51.25,        -32.5,           0.
      6,       -46.25,        -32.5,           0.
      7,       -41.25,        -32.5,           0.
      8,       -36.25,        -32.5,           0.
      9,       -31.25,        -32.5,           0.
     10,       -26.25,        -32.5,           0.
     11,       -21.25,        -32.5,           0.
     12,       -71.25,        -27.5,           0.
     13,       -66.25,        -27.5,           0.
     14,       -61.25,        -27.5,           0.
     15,       -56.25,        -27.5,           0.
     16,       -51.25,        -27.5,           0.
     17,       -46.25,        -27.5,           0.
     18,       -41.25,        -27.5,           0.
     19,       -36.25,        -27.5,           0.
     20,       -31.25,        -27.5,           0.
** ... 101 like lines cut
*Element, type=R3D4
  1,   1,   2,  13,  12
  2,   2,   3,  14,  13
  3,   3,   4,  15,  14
  4,   4,   5,  16,  15
  5,   5,   6,  17,  16
  6,   6,   7,  18,  17
  7,   7,   8,  19,  18
  8,   8,   9,  20,  19
  9,   9,  10,  21,  20
 10,  10,  11,  22,  21
 11,  12,  13,  24,  23
 12,  13,  14,  25,  24
 13,  14,  15,  26,  25
 14,  15,  16,  27,  26
 15,  16,  17,  28,  27
 16,  17,  18,  29,  28
 17,  18,  19,  30,  29
 18,  19,  20,  31,  30
 19,  20,  21,  32,  31
 20,  21,  22,  33,  32
** ... 80 like lines cut
*End Instance
**  
*Instance, name=wall-2, part=wall
         20.,          10.,         150.
*Node
      1,       -71.25,        -32.5,           0.
      2,       -66.25,        -32.5,           0.
      3,       -61.25,        -32.5,           0.
      4,       -56.25,        -32.5,           0.
      5,       -51.25,        -32.5,           0.
      6,       -46.25,        -32.5,           0.
      7,       -41.25,        -32.5,           0.
      8,       -36.25,        -32.5,           0.
      9,       -31.25,        -32.5,           0.
     10,       -26.25,        -32.5,           0.
     11,       -21.25,        -32.5,           0.
     12,       -71.25,        -27.5,           0.
     13,       -66.25,        -27.5,           0.
     14,       -61.25,        -27.5,           0.
     15,       -56.25,        -27.5,           0.
     16,       -51.25,        -27.5,           0.
     17,       -46.25,        -27.5,           0.
     18,       -41.25,        -27.5,           0.
     19,       -36.25,        -27.5,           0.
     20,       -31.25,        -27.5,           0.
** ... 101 like lines cut
*Element, type=R3D4
  1,   1,   2,  13,  12
  2,   2,   3,  14,  13
  3,   3,   4,  15,  14
  4,   4,   5,  16,  15
  5,   5,   6,  17,  16
  6,   6,   7,  18,  17
  7,   7,   8,  19,  18
  8,   8,   9,  20,  19
  9,   9,  10,  21,  20
 10,  10,  11,  22,  21
 11,  12,  13,  24,  23
 12,  13,  14,  25,  24
 13,  14,  15,  26,  25
 14,  15,  16,  27,  26
 15,  16,  17,  28,  27
 16,  17,  18,  29,  28
 17,  18,  19,  30,  29
 18,  19,  20,  31,  30
 19,  20,  21,  32,  31
 20,  21,  22,  33,  32
** ... 80 like lines cut
*End Instance
**  
*Node
      1,       -26.25,          2.5,         150.
*Node
      2,       -26.25,          2.5,           0.
*Nset, nset=Set-7
 1,
*Nset, nset=Set-8
 2,
*Nset, nset=Set-9
 1,
*Nset, nset=Set-bottom, instance=crashbox-1
   1,   2,   5,   7,   9,  10,  11,  12,  75,  76,  77,  78, 112, 113, 114, 115
 149, 150, 151, 152
*Nset, nset=Set-top, instance=crashbox-1
   1,   2,   5,   7,   9,  10,  11,  12,  75,  76,  77,  78, 112, 113, 114, 115
 149, 150, 151, 152
*Nset, nset=b_Set-3, instance=wall-2, generate
   1,  121,    1
*Elset, elset=b_Set-3, instance=wall-2, generate
   1,  100,    1
*Nset, nset=b_Set-5, instance=wall-1, generate
   1,  121,    1
*Elset, elset=b_Set-5, instance=wall-1, generate
   1,  100,    1
*Nset, nset=_PickedSet24, internal
 1,
*Nset, nset=_PickedSet26, internal
 2,
*Elset, elset=_m_Surf-1_SPOS, internal, instance=wall-1, generate
   1,  100,    1
*Surface, type=ELEMENT, name=m_Surf-1
  _m_Surf-1_SPOS, SPOS
*Elset, elset=_m_Surf-2_SPOS, internal, instance=wall-1, generate
   1,  100,    1
*Surface, type=ELEMENT, name=m_Surf-2
  _m_Surf-2_SPOS, SPOS
*Elset, elset=_m_Surf-3_SNEG, internal, instance=wall-2, generate
   1,  100,    1
*Surface, type=ELEMENT, name=m_Surf-3
  _m_Surf-3_SNEG, SNEG
*Surface, type=NODE, name=Set-bottom_CNS_, internal
  Set-bottom, 1.
*Surface, type=NODE, name=Set-top_CNS_, internal
  Set-top, 1.
** Constraint: Constraint-3
*Rigid Body, ref node=_PickedSet24, elset=b_Set-3
** Constraint: Constraint-4
*Rigid Body, ref node=_PickedSet26, elset=b_Set-5
** Constraint: Constraint-bottom
*Tie, name=Constraint-bottom, adjust=no, no rotation
  Set-bottom_CNS_, m_Surf-2
** Constraint: Constraint-top
*Tie, name=Constraint-top, adjust=no, no rotation
  Set-top_CNS_, m_Surf-3
*Element, type=MASS, elset=Set-7_Inertia-mass100_
  1, 1
*Mass, elset=Set-7_Inertia-mass100_
  100., 
*End Assembly
*Amplitude, name=Amp-1
             0.,              0.,            0.07,              1.
** 
** MATERIALS
** 
*Material, name=aluminium
*Density
 2.9e-06,
*Elastic
  69000., 0.29
*Plastic
  120.,   0.
  160., 0.05
  200., 0.07
  220.,  0.1
  240., 0.15
** 
** INTERACTION PROPERTIES
** 
*Surface Interaction, name=IntProp-friction
*Friction
 0.2,
*Surface Behavior, pressure-overclosure=HARD
** ----------------------------------------------------------------
** 
** STEP: Step-1
** 
*Step, name=Step-1, nlgeom=YES
*Dynamic, Explicit
  , 0.07
*Bulk Viscosity
  0.06, 1.2
** 
** BOUNDARY CONDITIONS
** 
** Name: BC-1 Type: Symmetry/Antisymmetry/Encastre
*Boundary
  Set-8, ENCASTRE
** Name: BC-2 Type: Displacement/Rotation
*Boundary, amplitude=Amp-1
  Set-9, 3, 3, -75.
** 
** INTERACTIONS
** 
** Interaction: Int-1
*Contact, op=NEW
*Contact Inclusions, ALL EXTERIOR
*Contact Property Assignment
 ,  , IntProp-friction
** 
** OUTPUT REQUESTS
** 
*Restart, write, number interval=1, time marks=NO
** 
** FIELD OUTPUT: F-Output-1
** 
*Output, field, variable=PRESELECT
** 
** HISTORY OUTPUT: H-Output-1
** 
*Output, history, variable=PRESELECT
*End Step
  